# P3HT pistack-CAab optimized by PBE-D3paw900
data_nolabel
_cell_length_a                   7.81762704
_cell_length_b                  30
_cell_length_c                   7.8357092
_cell_angle_alpha                90
_cell_angle_beta                 90
_cell_angle_gamma                90
_cell_formula_units_Z            4
_symmetry_space_group_name_H-M   p21/b11xz
loop_
_symmetry_equiv_pos_as_xyz
x,y,z
x+1/2,-y,-z-1/2
-x+1/2,y,z+1/2
-x+1,-y,-z
loop_
_atom_site_type_symbol
_atom_site_fract_x
_atom_site_fract_y
_atom_site_fract_z
 S     .18381208  -.03007867  -.19536551
 C     .03157151   .00815900  -.26807303
 C     .35459824   .00361533  -.25343428
 C     .11205693   .04562867  -.33740051
 C     .29207543   .04250867  -.32672439
 H     .37636219   .06833600  -.37616790
 C     .02895434   .08573967  -.41739901
 C     .05630951   .12868900  -.31413682
 H    -.10826102   .08026833  -.43827141
 H     .08495503   .09004100  -.54541099
 C    -.02974678   .12819867  -.13949756
 H     .00948232   .15725933  -.38926180
 H     .19473579   .13412933  -.29712273
 C     .01262490   .16911333  -.03164389
 H     .00938479   .09776167  -.07136014
 H    -.16934285   .12535367  -.15527533
 C    -.07269364   .16858533   .14371607
 H    -.02619040   .19956800  -.10068869
 H     .15259224   .17154367  -.01592227
 C    -.02529914   .20843933   .25519034
 H    -.03892668   .13739933   .21030927
 H    -.21244033   .16741367   .12630858
 H    -.09201504   .20747500   .37863545
 H    -.05905459   .24002567   .19236386
 H     .11293763   .20921067   .28125818
